/*--------------------------------*- C++ -*----------------------------------*\
  =========                 |
  \\      /  F ield         | OpenFOAM: The Open Source CFD Toolbox
   \\    /   O peration     | Website:  https://openfoam.org
    \\  /    A nd           | Version:  dev
     \\/     M anipulation  |
\*---------------------------------------------------------------------------*/
FoamFile
{
    version     2.0;
    format      ascii;
    class       volScalarField;
    location    "0";
    object      nut;
}
// * * * * * * * * * * * * * * * * * * * * * * * * * * * * * * * * * * * * * //

dimensions      [0 2 -1 0 0 0 0];

internalField   uniform 0;

boundaryField
{
    //- Set patchGroups for constraint patches
    #includeEtc "caseDicts/setConstraintTypes"


    b_Face_846
    {
        type            calculated;
        value           uniform 0;
    }

    b_Face_1
    {
        type            calculated;
        value           uniform 0;
    }

    ".*"
    {
        type            nutkWallFunction;
        value           uniform 0;
    }


    b_Face_412
    {
        type            slip;

    }
}


// ************************************************************************* //
