/*--------------------------------*- C++ -*----------------------------------*\
  =========                 |
  \\      /  F ield         | OpenFOAM: The Open Source CFD Toolbox
   \\    /   O peration     | Website:  https://openfoam.org
    \\  /    A nd           | Version:  dev
     \\/     M anipulation  |
\*---------------------------------------------------------------------------*/
FoamFile
{
    version     2.0;
    format      ascii;
    class       volScalarField;
    object      omega;
}
// * * * * * * * * * * * * * * * * * * * * * * * * * * * * * * * * * * * * * //

#include        "include/initialConditions"

dimensions      [0 0 -1 0 0 0 0];

internalField   uniform $turbulentOmega;

boundaryField
{
    //- Set patchGroups for constraint patches
    #includeEtc "caseDicts/setConstraintTypes"

    //#include "include/fixedInlet"

    b_Face_1
    {
        type            inletOutlet;
        inletValue      $internalField;
        value           $internalField;
    }
	
	b_Face_846
	{
		type  fixedValue;
		value $internalField;
	}

    ".*"
    {
        type            omegaWallFunction;
        value           $internalField;
    }

    b_Face_412
    {
        type            slip;
        
    }

    #include "include/frontBackUpperPatches"
}


// ************************************************************************* //
