/*--------------------------------*- C++ -*----------------------------------*\
  =========                 |
  \\      /  F ield         | OpenFOAM: The Open Source CFD Toolbox
   \\    /   O peration     | Website:  https://openfoam.org
    \\  /    A nd           | Version:  dev
     \\/     M anipulation  |
\*---------------------------------------------------------------------------*/
FoamFile
{
    version     2.0;
    format      ascii;
    class       volScalarField;
    object      T;
}
// * * * * * * * * * * * * * * * * * * * * * * * * * * * * * * * * * * * * * //

#include        "include/initialConditions"

dimensions      [0 0 0 2 0 0 0];

internalField   uniform 300;

boundaryField
{
    //- Set patchGroups for constraint patches
    #includeEtc "caseDicts/setConstraintTypes"

    b_Face_846
    {
        type            zeroGradient;
    }

    b_Face_1
    {
        type            fixedValue;
        value           $internalField;
    }

    ".*"
    {
        type            zeroGradient;
    }

    b_Face_412
    {
        type            slip;
    }

    #include "include/frontBackUpperPatches"
}

// ************************************************************************* //
